Version 4
SHEET 1 3072 680
WIRE 480 -608 480 -656
WIRE 480 -608 304 -608
WIRE 2080 -608 2080 -656
WIRE 2080 -608 1904 -608
WIRE 1264 -592 1264 -640
WIRE 1264 -592 1088 -592
WIRE 2832 -592 2832 -640
WIRE 2832 -592 2656 -592
WIRE 304 -560 304 -608
WIRE 480 -560 480 -608
WIRE 1904 -560 1904 -608
WIRE 2080 -560 2080 -608
WIRE 1088 -544 1088 -592
WIRE 1264 -544 1264 -592
WIRE 2656 -544 2656 -592
WIRE 2832 -544 2832 -592
WIRE 304 -416 304 -480
WIRE 480 -416 480 -480
WIRE 480 -416 304 -416
WIRE 1904 -416 1904 -480
WIRE 2080 -416 2080 -480
WIRE 2080 -416 1904 -416
WIRE 1088 -400 1088 -464
WIRE 1264 -400 1264 -464
WIRE 1264 -400 1088 -400
WIRE 2656 -400 2656 -464
WIRE 2832 -400 2832 -464
WIRE 2832 -400 2656 -400
WIRE 480 -384 480 -416
WIRE 2080 -384 2080 -416
WIRE 1264 -368 1264 -400
WIRE 2832 -368 2832 -400
WIRE 1232 -160 1232 -224
WIRE 1232 -160 1104 -160
WIRE 1376 -160 1232 -160
WIRE 2064 -160 2064 -224
WIRE 2064 -160 1936 -160
WIRE 2208 -160 2064 -160
WIRE 2816 -160 2816 -224
WIRE 2816 -160 2688 -160
WIRE 2960 -160 2816 -160
WIRE 368 -144 224 -144
WIRE 640 -144 368 -144
WIRE 1104 -96 1104 -160
WIRE 1936 -96 1936 -160
WIRE 2688 -96 2688 -160
WIRE 368 -80 368 -144
WIRE 1376 -32 1376 -160
WIRE 2208 -32 2208 -160
WIRE 2960 -32 2960 -160
WIRE -320 -16 -320 -32
WIRE 224 -16 224 -144
WIRE 224 -16 -320 -16
WIRE 640 -16 640 -144
WIRE 1328 -16 1104 -16
WIRE 2160 -16 1936 -16
WIRE 2912 -16 2688 -16
WIRE 592 0 368 0
WIRE 1104 32 1104 -16
WIRE 1936 32 1936 -16
WIRE 2688 32 2688 -16
WIRE 368 48 368 0
WIRE -320 64 -320 -16
WIRE 944 80 928 80
WIRE 1040 80 1024 80
WIRE 1776 80 1760 80
WIRE 1872 80 1856 80
WIRE 2528 80 2512 80
WIRE 2624 80 2608 80
WIRE 208 96 192 96
WIRE 304 96 288 96
WIRE 1376 160 1376 64
WIRE 2208 160 2208 64
WIRE 2960 160 2960 64
WIRE 640 176 640 80
WIRE -320 240 -320 144
WIRE 1104 288 1104 128
WIRE 1248 288 1104 288
WIRE 1376 288 1376 240
WIRE 1376 288 1248 288
WIRE 1936 288 1936 128
WIRE 2080 288 1936 288
WIRE 2208 288 2208 240
WIRE 2208 288 2080 288
WIRE 2688 288 2688 128
WIRE 2832 288 2688 288
WIRE 2960 288 2960 240
WIRE 2960 288 2832 288
WIRE 368 304 368 144
WIRE 512 304 368 304
WIRE 640 304 640 256
WIRE 640 304 512 304
WIRE 1248 320 1248 288
WIRE 2080 320 2080 288
WIRE 2832 320 2832 288
WIRE 512 336 512 304
FLAG 512 336 0
FLAG 480 -384 0
FLAG 480 -656 OUTPUT_EN1
IOPIN 480 -656 Out
FLAG -320 240 0
FLAG -320 -32 Vcc
IOPIN -320 -32 Out
FLAG 192 96 OUTPUT_EN1
IOPIN 192 96 In
FLAG 1248 320 0
FLAG 1232 -224 Vcc
IOPIN 1232 -224 In
FLAG 928 80 OUTPUT_EN2
IOPIN 928 80 In
FLAG 2080 320 0
FLAG 2064 -224 Vcc
IOPIN 2064 -224 In
FLAG 1760 80 OUTPUT_EN3
IOPIN 1760 80 In
FLAG 2832 320 0
FLAG 2816 -224 Vcc
IOPIN 2816 -224 In
FLAG 2512 80 OUTPUT_EN4
IOPIN 2512 80 In
FLAG 1264 -368 0
FLAG 1264 -640 OUTPUT_EN2
IOPIN 1264 -640 Out
FLAG 2080 -384 0
FLAG 2080 -656 OUTPUT_EN3
IOPIN 2080 -656 Out
FLAG 2832 -368 0
FLAG 2832 -640 OUTPUT_EN4
IOPIN 2832 -640 Out
SYMBOL voltage -320 48 R0
WINDOW 123 0 0 Left 0
WINDOW 39 0 0 Left 0
SYMATTR InstName V1
SYMATTR Value 12
SYMBOL res 192 80 M90
WINDOW 0 0 56 VBottom 2
WINDOW 3 32 56 VTop 2
SYMATTR InstName R1
SYMATTR Value 10k
SYMBOL res 352 16 M180
WINDOW 0 36 76 Left 2
WINDOW 3 36 40 Left 2
SYMATTR InstName R2
SYMATTR Value 10k
SYMBOL res 624 272 M180
WINDOW 0 36 76 Left 2
WINDOW 3 36 40 Left 2
SYMATTR InstName LOAD1
SYMATTR Value 20
SYMBOL npn 304 48 R0
SYMATTR InstName Q1
SYMATTR Value 2N2222
SYMBOL pmos 592 80 M180
SYMATTR InstName M1
SYMATTR Value irf9540n
SYMATTR Prefix X
SYMBOL voltage 480 -576 R0
WINDOW 3 -146 129 Left 2
WINDOW 123 0 0 Left 0
WINDOW 39 0 0 Left 0
SYMATTR Value PULSE(0 3.3 2m .001u .001u 1)
SYMATTR InstName V2
SYMBOL res 288 -576 R0
SYMATTR InstName R4
SYMATTR Value 10k
SYMBOL res 928 64 M90
WINDOW 0 0 56 VBottom 2
WINDOW 3 32 56 VTop 2
SYMATTR InstName R3
SYMATTR Value 10k
SYMBOL res 1088 0 M180
WINDOW 0 36 76 Left 2
WINDOW 3 36 40 Left 2
SYMATTR InstName R5
SYMATTR Value 10k
SYMBOL res 1360 256 M180
WINDOW 0 36 76 Left 2
WINDOW 3 36 40 Left 2
SYMATTR InstName LOAD2
SYMATTR Value 20
SYMBOL npn 1040 32 R0
SYMATTR InstName Q2
SYMATTR Value 2N2222
SYMBOL res 1760 64 M90
WINDOW 0 0 56 VBottom 2
WINDOW 3 32 56 VTop 2
SYMATTR InstName R6
SYMATTR Value 10k
SYMBOL res 1920 0 M180
WINDOW 0 36 76 Left 2
WINDOW 3 36 40 Left 2
SYMATTR InstName R7
SYMATTR Value 10k
SYMBOL res 2192 256 M180
WINDOW 0 36 76 Left 2
WINDOW 3 36 40 Left 2
SYMATTR InstName LOAD3
SYMATTR Value 20
SYMBOL npn 1872 32 R0
SYMATTR InstName Q3
SYMATTR Value 2N2222
SYMBOL res 2512 64 M90
WINDOW 0 0 56 VBottom 2
WINDOW 3 32 56 VTop 2
SYMATTR InstName R8
SYMATTR Value 10k
SYMBOL res 2672 0 M180
WINDOW 0 36 76 Left 2
WINDOW 3 36 40 Left 2
SYMATTR InstName R9
SYMATTR Value 10k
SYMBOL res 2944 256 M180
WINDOW 0 36 76 Left 2
WINDOW 3 36 40 Left 2
SYMATTR InstName LOAD4
SYMATTR Value 20
SYMBOL npn 2624 32 R0
SYMATTR InstName Q4
SYMATTR Value 2N2222
SYMBOL voltage 1264 -560 R0
WINDOW 3 -146 129 Left 2
WINDOW 123 0 0 Left 0
WINDOW 39 0 0 Left 0
SYMATTR Value PULSE(0 3.3 4m .001u .001u 1)
SYMATTR InstName V3
SYMBOL res 1072 -560 R0
SYMATTR InstName R10
SYMATTR Value 10k
SYMBOL voltage 2080 -576 R0
WINDOW 3 -146 129 Left 2
WINDOW 123 0 0 Left 0
WINDOW 39 0 0 Left 0
SYMATTR Value PULSE(0 3.3 6m .001u .001u 1)
SYMATTR InstName V4
SYMBOL res 1888 -576 R0
SYMATTR InstName R11
SYMATTR Value 10k
SYMBOL voltage 2832 -560 R0
WINDOW 3 -146 129 Left 2
WINDOW 123 0 0 Left 0
WINDOW 39 0 0 Left 0
SYMATTR Value PULSE(0 3.3 8m .001u .001u 1)
SYMATTR InstName V5
SYMBOL res 2640 -560 R0
SYMATTR InstName R12
SYMATTR Value 10k
SYMBOL pmos 1328 64 M180
SYMATTR InstName M2
SYMATTR Value IRF4905
SYMATTR Prefix X
SYMBOL pmos 2160 64 M180
SYMATTR InstName M3
SYMATTR Value IRF4905
SYMATTR Prefix X
SYMBOL pmos 2912 64 M180
SYMATTR InstName M4
SYMATTR Value IRF4905
SYMATTR Prefix X
SYMBOL pmos 800 -112 M180
SYMATTR InstName M5
TEXT -536 360 Left 2 !.tran 10m
TEXT 112 528 Left 2 !.INCLUDE IRF4905PBF.txt
TEXT 104 576 Left 2 !.INCLUDE sihf9540.lib
