Version 4
SHEET 1 880 680
WIRE 496 -144 496 -208
WIRE 640 -144 496 -144
WIRE 640 -16 640 -144
WIRE 352 0 336 0
WIRE 592 0 432 0
WIRE -384 32 -384 -16
WIRE -384 32 -560 32
WIRE -560 80 -560 32
WIRE -384 80 -384 32
WIRE -32 80 -32 -16
WIRE 640 176 640 80
WIRE -560 224 -560 160
WIRE -384 224 -384 160
WIRE -384 224 -560 224
WIRE -384 256 -384 224
WIRE -32 256 -32 160
WIRE 640 304 640 256
FLAG -384 256 0
FLAG -384 -16 OUTPUT_EN
IOPIN -384 -16 Out
FLAG -32 256 0
FLAG -32 -16 Vcc
IOPIN -32 -16 Out
FLAG 496 -208 Vcc
IOPIN 496 -208 In
FLAG 336 0 OUTPUT_EN
IOPIN 336 0 In
FLAG 640 304 0
SYMBOL voltage -32 64 R0
WINDOW 123 0 0 Left 0
WINDOW 39 0 0 Left 0
SYMATTR InstName V1
SYMATTR Value 12
SYMBOL res 336 -16 M90
WINDOW 0 0 56 VBottom 2
WINDOW 3 32 56 VTop 2
SYMATTR InstName R1
SYMATTR Value 10k
SYMBOL res 624 272 M180
WINDOW 0 36 76 Left 2
WINDOW 3 36 40 Left 2
SYMATTR InstName LOAD
SYMATTR Value 20
SYMBOL pmos 592 80 M180
SYMATTR InstName M1
SYMATTR Value IRF7404
SYMBOL voltage -384 64 R0
WINDOW 3 -146 129 Left 2
WINDOW 123 0 0 Left 0
WINDOW 39 0 0 Left 0
SYMATTR Value PULSE(0 3.3 5m .001u .001u 5m)
SYMATTR InstName V2
SYMBOL res -576 64 R0
SYMATTR InstName R4
SYMATTR Value 10k
TEXT -536 360 Left 2 !.tran 10m
